opendss_networks/LV17_279bus/lines.dss
new line.L_16 lineCode=uglv_240al_xlpe/nyl/pvc_ug_4w_bundled bus1=B2179 bus2=B269 length=0.117434068726 units=km phases=4
new line.L_27 lineCode=uglv_240al_xlpe/nyl/pvc_ug_4w_bundled bus1=B1247 bus2=B3216 length=0.0440236757285 units=km phases=4
new line.L_45 lineCode=ugsc_16cu_xlpe/nyl/pvc_ug_4w_bundled bus1=B2912 bus2=B1629 length=0.0110194058378 units=km phases=4
new line.L_58 lineCode=ugsc_16cu_xlpe/nyl/pvc_ug_4w_bundled bus1=B2318 bus2=B730 length=0.0108291808021 units=km phases=4
new line.L_92 lineCode=ugsc_16cu_xlpe/nyl/pvc_ug_4w_bundled bus1=B1763 bus2=B23 length=0.0179873708922 units=km phases=4
new line.L_96 lineCode=ugsc_16cu_xlpe/nyl/pvc_ug_4w_bundled bus1=B269 bus2=B67 length=0.0409138967790 units=km phases=4
new line.L_104 lineCode=uglv_240al_xlpe/nyl/pvc_ug_4w_bundled bus1=B2578 bus2=B622 length=0.0468887549322 units=km phases=4
new line.L_122 lineCode=ugsc_16cu_xlpe/nyl/pvc_ug_4w_bundled bus1=B1584 bus2=B2705 length=0.0317439486330 units=km phases=4
new line.L_127 lineCode=ugsc_16cu_xlpe/nyl/pvc_ug_4w_bundled bus1=B21 bus2=B2315 length=0.0111727342987 units=km phases=4
new line.L_142 lineCode=ugsc_16cu_xlpe/nyl/pvc_ug_4w_bundled bus1=B3342 bus2=B2208 length=0.0329932409754 units=km phases=4
new line.L_154 lineCode=ugsc_16cu_xlpe/nyl/pvc_ug_4w_bundled bus1=B2858 bus2=B530 length=0.0102438488929 units=km phases=4
new line.L_155 lineCode=ugsc_16cu_xlpe/nyl/pvc_ug_4w_bundled bus1=B2160 bus2=B1629 length=0.0400815991598 units=km phases=4
new line.L_181 lineCode=ugsc_16cu_xlpe/nyl/pvc_ug_4w_bundled bus1=B1782 bus2=B1761 length=0.0110646464641 units=km phases=4
new line.L_193 lineCode=ugsc_16cu_xlpe/nyl/pvc_ug_4w_bundled bus1=B1959 bus2=B2218 length=0.0210459100787 units=km phases=4
new line.L_208 lineCode=ugsc_16cu_xlpe/nyl/pvc_ug_4w_bundled bus1=B527 bus2=B1958 length=0.00949614396376 units=km phases=4
new line.L_221 lineCode=ugsc_16cu_xlpe/nyl/pvc_ug_4w_bundled bus1=B38 bus2=B2570 length=0.0195921555353 units=km phases=4
new line.L_224 lineCode=ugsc_16cu_xlpe/nyl/pvc_ug_4w_bundled bus1=B1072 bus2=B1757 length=0.00853371976818 units=km phases=4
new line.L_258 lineCode=uglv_240al_xlpe/nyl/pvc_ug_4w_bundled bus1=B2322 bus2=B2952 length=0.0193141633211 units=km phases=4
new line.L_273 lineCode=ughv_400al_triplex_ug_4w_bundled bus1=B2570 bus2=B666 length=0.000206301915236 units=km phases=4
new line.L_281 lineCode=ugsc_16cu_xlpe/nyl/pvc_ug_4w_bundled bus1=B3209 bus2=B1913 length=0.0101616109932 units=km phases=4
new line.L_297 lineCode=ugsc_16cu_xlpe/nyl/pvc_ug_4w_bundled bus1=B3176 bus2=B142 length=0.00985001604218 units=km phases=4
new line.L_337 lineCode=ugsc_16cu_xlpe/nyl/pvc_ug_4w_bundled bus1=B472 bus2=B1240 length=0.00498758696693 units=km phases=4
new line.L_345 lineCode=ugsc_16cu_xlpe/nyl/pvc_ug_4w_bundled bus1=B1589 bus2=B2208 length=0.00954301918613 units=km phases=4
new line.L_376 lineCode=ugsc_16cu_xlpe/nyl/pvc_ug_4w_bundled bus1=B857 bus2=B2315 length=0.00644673072309 units=km phases=4
new line.L_395 lineCode=ugsc_16cu_xlpe/nyl/pvc_ug_4w_bundled bus1=B1870 bus2=B1481 length=0.0105051566201 units=km phases=4
new line.L_412 lineCode=ugsc_16cu_xlpe/nyl/pvc_ug_4w_bundled bus1=B2680 bus2=B2458 length=0.0392594106825 units=km phases=4
new line.L_428 lineCode=uglv_240al_xlpe/nyl/pvc_ug_4w_bundled bus1=B2952 bus2=B142 length=0.0353787588441 units=km phases=4
new line.L_440 lineCode=ugsc_16cu_xlpe/nyl/pvc_ug_4w_bundled bus1=B2435 bus2=B700 length=0.0117886055153 units=km phases=4
new line.L_463 lineCode=ugsc_16cu_xlpe/nyl/pvc_ug_4w_bundled bus1=B3182 bus2=B329 length=0.0232889087512 units=km phases=4
new line.L_487 lineCode=ugsc_16cu_xlpe/nyl/pvc_ug_4w_bundled bus1=B1848 bus2=B2835 length=0.0138888027852 units=km phases=4
new line.L_509 lineCode=ughv_240cu_xlpe/nyl/pvc_ug_4w_bundled bus1=B2705 bus2=B1629 length=0.0402702572404 units=km phases=4
new line.L_558 lineCode=ugsc_16cu_xlpe/nyl/pvc_ug_4w_bundled bus1=B2649 bus2=B1546 length=0.0121707208260 units=km phases=4
new line.L_566 lineCode=ugsc_16cu_xlpe/nyl/pvc_ug_4w_bundled bus1=B1466 bus2=B1506 length=0.0102626900577 units=km phases=4
new line.L_599 lineCode=uglv_120cu_xlpe/nyl/pvc_ug_4w_bundled bus1=B2750 bus2=B1635 length=0.0147398135264 units=km phases=4
new line.L_602 lineCode=ugsc_16cu_xlpe/nyl/pvc_ug_4w_bundled bus1=B2553 bus2=B2705 length=0.0107273273768 units=km phases=4
new line.L_607 lineCode=uglv_240al_xlpe/nyl/pvc_ug_4w_bundled bus1=B2178 bus2=B1247 length=0.0201425717899 units=km phases=4
new line.L_612 lineCode=ugsc_16cu_xlpe/nyl/pvc_ug_4w_bundled bus1=B894 bus2=B284 length=0.00987496987299 units=km phases=4
new line.L_630 lineCode=ughv_240cu_xlpe/nyl/pvc_ug_4w_bundled bus1=B1302 bus2=B1930 length=0.0385045484803 units=km phases=4
new line.L_668 lineCode=ugsc_16cu_xlpe/nyl/pvc_ug_4w_bundled bus1=B2330 bus2=B236 length=0.0261781473620 units=km phases=4
new line.L_674 lineCode=ughv_240cu_xlpe/nyl/pvc_ug_4w_bundled bus1=B1104 bus2=B2096 length=0.0970524739209 units=km phases=4
new line.L_722 lineCode=ugsc_16cu_xlpe/nyl/pvc_ug_4w_bundled bus1=B1221 bus2=B2578 length=0.00954220733226 units=km phases=4
new line.L_726 lineCode=ugsc_16cu_xlpe/nyl/pvc_ug_4w_bundled bus1=B873 bus2=B2578 length=0.00969045080216 units=km phases=4
new line.L_727 lineCode=ugsc_16cu_xlpe/nyl/pvc_ug_4w_bundled bus1=B1168 bus2=B1242 length=0.0154943712536 units=km phases=4
new line.L_728 lineCode=uglv_185cu_xlpe/sw/pvc_ug_4w_bundled bus1=B1242 bus2=B284 length=0.0472981535137 units=km phases=4
new line.L_732 lineCode=ugsc_16cu_xlpe/nyl/pvc_ug_4w_bundled bus1=B780 bus2=B1946 length=0.0167318440543 units=km phases=4
new line.L_742 lineCode=ugsc_16cu_xlpe/nyl/pvc_ug_4w_bundled bus1=B687 bus2=B290 length=0.0111865524873 units=km phases=4
new line.L_779 lineCode=ugsc_16cu_xlpe/nyl/pvc_ug_4w_bundled bus1=B2927 bus2=B1193 length=0.00558833947311 units=km phases=4
new line.L_801 lineCode=ugsc_16cu_xlpe/nyl/pvc_ug_4w_bundled bus1=B151 bus2=B178 length=0.0175726657191 units=km phases=4
new line.L_816 lineCode=ughv_400al_triplex_ug_4w_bundled bus1=B1419 bus2=B2307 length=0.000800000000000 units=km phases=4
new line.L_824 lineCode=ugsc_16cu_xlpe/nyl/pvc_ug_4w_bundled bus1=B2302 bus2=B2160 length=0.00983897907593 units=km phases=4
new line.L_866 lineCode=ughv_400al_triplex_ug_4w_bundled bus1=B2247 bus2=B1405 length=7.47735679484e-05 units=km phases=4
new line.L_867 lineCode=ugsc_16cu_xlpe/nyl/pvc_ug_4w_bundled bus1=B78 bus2=B3007 length=0.00990045779864 units=km phases=4
new line.L_870 lineCode=ugsc_16cu_xlpe/nyl/pvc_ug_4w_bundled bus1=B1011 bus2=B1761 length=0.0108704056559 units=km phases=4
new line.L_917 lineCode=ugsc_16cu_xlpe/nyl/pvc_ug_4w_bundled bus1=B108 bus2=B3216 length=0.00509627741211 units=km phases=4
new line.L_944 lineCode=ugsc_16cu_xlpe/nyl/pvc_ug_4w_bundled bus1=B2772 bus2=B1757 length=0.0164539516863 units=km phases=4
new line.L_960 lineCode=ugsc_16cu_xlpe/nyl/pvc_ug_4w_bundled bus1=B2557 bus2=B2927 length=0.00964080517498 units=km phases=4
new line.L_963 lineCode=ughv_240cu_xlpe/nyl/pvc_ug_4w_bundled bus1=B1629 bus2=B3077 length=0.0488996788792 units=km phases=4
new line.L_992 lineCode=ugsc_16cu_xlpe/nyl/pvc_ug_4w_bundled bus1=B1629 bus2=B2568 length=0.0208450833397 units=km phases=4
new line.L_1004 lineCode=ugsc_16cu_xlpe/nyl/pvc_ug_4w_bundled bus1=B622 bus2=B481 length=0.0372422438497 units=km phases=4
new line.L_1020 lineCode=ugsc_16cu_xlpe/nyl/pvc_ug_4w_bundled bus1=B166 bus2=B2540 length=0.00760130087272 units=km phases=4
new line.L_1022 lineCode=ughv_240cu_xlpe/nyl/pvc_ug_4w_bundled bus1=B3007 bus2=B1302 length=0.0390503948511 units=km phases=4
new line.L_1035 lineCode=ugsc_16cu_xlpe/nyl/pvc_ug_4w_bundled bus1=B2658 bus2=B700 length=0.00609062202739 units=km phases=4
new line.L_1040 lineCode=ugsc_16cu_xlpe/nyl/pvc_ug_4w_bundled bus1=B1264 bus2=B2795 length=0.00906872061725 units=km phases=4
new line.L_1041 lineCode=ugsc_16cu_xlpe/nyl/pvc_ug_4w_bundled bus1=B2795 bus2=B202 length=0.00606449491126 units=km phases=4
new line.L_1081 lineCode=ugsc_16cu_xlpe/nyl/pvc_ug_4w_bundled bus1=B1627 bus2=B2750 length=0.0243804756086 units=km phases=4
new line.L_1090 lineCode=ugsc_16cu_xlpe/nyl/pvc_ug_4w_bundled bus1=B2281 bus2=B957 length=0.0108785388626 units=km phases=4
new line.L_1145 lineCode=ugsc_16cu_xlpe/nyl/pvc_ug_4w_bundled bus1=B2882 bus2=B236 length=0.0212929453771 units=km phases=4
new line.L_1154 lineCode=ugsc_16cu_xlpe/nyl/pvc_ug_4w_bundled bus1=B123 bus2=B863 length=0.0111059296186 units=km phases=4
new line.L_1161 lineCode=ugsc_16cu_xlpe/nyl/pvc_ug_4w_bundled bus1=B2686 bus2=B3007 length=0.00983452144116 units=km phases=4
new line.L_1180 lineCode=uglv_120cu_xlpe/nyl/pvc_ug_4w_bundled bus1=B1958 bus2=B2208 length=0.0343929004682 units=km phases=4
new line.L_1198 lineCode=ugsc_16cu_xlpe/nyl/pvc_ug_4w_bundled bus1=B809 bus2=B451 length=0.149176197913 units=km phases=4
new line.L_1219 lineCode=ughv_400al_triplex_ug_4w_bundled bus1=B2570 bus2=B3093 length=0.000542134608370 units=km phases=4
new line.L_1225 lineCode=ugsc_16cu_xlpe/nyl/pvc_ug_4w_bundled bus1=B2179 bus2=B290 length=0.0559761787973 units=km phases=4
new line.L_1230 lineCode=ugsc_16cu_xlpe/nyl/pvc_ug_4w_bundled bus1=B3331 bus2=B1481 length=0.0104701570583 units=km phases=4
new line.L_1231 lineCode=ugsc_16cu_xlpe/nyl/pvc_ug_4w_bundled bus1=B622 bus2=B1764 length=0.0194697830250 units=km phases=4
new line.L_1239 lineCode=ugsc_16cu_xlpe/nyl/pvc_ug_4w_bundled bus1=B3183 bus2=B1629 length=0.0104185818453 units=km phases=4
new line.L_1249 lineCode=ughv_240cu_xlpe/nyl/pvc_ug_4w_bundled bus1=B2481 bus2=B2927 length=0.0952985756197 units=km phases=4
new line.L_1265 lineCode=ugsc_16cu_xlpe/nyl/pvc_ug_4w_bundled bus1=B705 bus2=B3338 length=0.0109809726322 units=km phases=4
new line.L_1284 lineCode=ugsc_16cu_xlpe/nyl/pvc_ug_4w_bundled bus1=B2481 bus2=B3154 length=0.00614867206351 units=km phases=4
new line.L_1294 lineCode=uglv_240al_xlpe/nyl/pvc_ug_4w_bundled bus1=B2179 bus2=B1481 length=0.0394604355226 units=km phases=4
new line.L_1301 lineCode=ugsc_16cu_xlpe/nyl/pvc_ug_4w_bundled bus1=B2033 bus2=B2179 length=0.0309524286348 units=km phases=4
new line.L_1305 lineCode=ughv_240cu_xlpe/nyl/pvc_ug_4w_bundled bus1=B1240 bus2=B2540 length=0.0720628890011 units=km phases=4
new line.L_1340 lineCode=ugsc_16cu_xlpe/nyl/pvc_ug_4w_bundled bus1=B1241 bus2=B290 length=0.0109982194194 units=km phases=4
new line.L_1341 lineCode=uglv_120cu_xlpe/nyl/pvc_ug_4w_bundled bus1=B1635 bus2=B1757 length=0.0416865900462 units=km phases=4
new line.L_1350 lineCode=ugsc_16cu_xlpe/nyl/pvc_ug_4w_bundled bus1=B778 bus2=B1302 length=0.0109573826143 units=km phases=4
new line.L_1362 lineCode=ugsc_16cu_xlpe/nyl/pvc_ug_4w_bundled bus1=B2467 bus2=B1195 length=0.0172771553407 units=km phases=4
new line.L_1363 lineCode=ugsc_16cu_xlpe/nyl/pvc_ug_4w_bundled bus1=B1063 bus2=B1104 length=0.00725127300268 units=km phases=4
new line.L_1366 lineCode=ughv_240cu_xlpe/nyl/pvc_ug_4w_bundled bus1=B2670 bus2=B1532 length=0.0406711254858 units=km phases=4
new line.L_1382 lineCode=ughv_400al_triplex_ug_4w_bundled bus1=B1439 bus2=B1622 length=7.47735679484e-05 units=km phases=4
new line.L_1385 lineCode=ugsc_16cu_xlpe/nyl/pvc_ug_4w_bundled bus1=B826 bus2=B2097 length=0.00985063292077 units=km phases=4
new line.L_1399 lineCode=ugsc_16cu_xlpe/nyl/pvc_ug_4w_bundled bus1=B1258 bus2=B618 length=0.0111139475285 units=km phases=4
new line.L_1405 lineCode=ugsc_16cu_xlpe/nyl/pvc_ug_4w_bundled bus1=B878 bus2=B957 length=0.0110237177770 units=km phases=4
new line.L_1421 lineCode=ugsc_16cu_xlpe/nyl/pvc_ug_4w_bundled bus1=B2245 bus2=B2179 length=0.0216162098146 units=km phases=4
new line.L_1422 lineCode=ugsc_16cu_xlpe/nyl/pvc_ug_4w_bundled bus1=B2967 bus2=B1851 length=0.0101803578927 units=km phases=4
new line.L_1432 lineCode=uglv_120cu_xlpe/nyl/pvc_ug_4w_bundled bus1=B2208 bus2=B2315 length=0.0375178061760 units=km phases=4
new line.L_1433 lineCode=ughv_240cu_xlpe/nyl/pvc_ug_4w_bundled bus1=B2097 bus2=B3007 length=0.0391685025430 units=km phases=4
new line.L_1475 lineCode=ughv_240cu_xlpe/nyl/pvc_ug_4w_bundled bus1=B1246 bus2=B1347 length=0.0396517911367 units=km phases=4
new line.L_1478 lineCode=ughv_240cu_xlpe/nyl/pvc_ug_4w_bundled bus1=B1757 bus2=B2097 length=0.0357481273088 units=km phases=4
new line.L_1502 lineCode=ughv_240cu_xlpe/nyl/pvc_ug_4w_bundled bus1=B2275 bus2=B1698 length=0.0384436685381 units=km phases=4
new line.L_1518 lineCode=ugsc_16cu_xlpe/nyl/pvc_ug_4w_bundled bus1=B1578 bus2=B269 length=0.0166714887183 units=km phases=4
new line.L_1526 lineCode=ugsc_16cu_xlpe/nyl/pvc_ug_4w_bundled bus1=B2576 bus2=B530 length=0.00544345250543 units=km phases=4
new line.L_1531 lineCode=ugsc_16cu_xlpe/nyl/pvc_ug_4w_bundled bus1=B500 bus2=B2202 length=0.00585764105320 units=km phases=4
new line.L_1538 lineCode=ugsc_16cu_xlpe/nyl/pvc_ug_4w_bundled bus1=B473 bus2=B2680 length=0.0177251601751 units=km phases=4
new line.L_1582 lineCode=ugsc_16cu_xlpe/nyl/pvc_ug_4w_bundled bus1=B284 bus2=B3382 length=0.0218557296261 units=km phases=4
new line.L_1585 lineCode=ugsc_16cu_xlpe/nyl/pvc_ug_4w_bundled bus1=B2202 bus2=B710 length=0.0130327610086 units=km phases=4
new line.L_1591 lineCode=ugsc_16cu_xlpe/nyl/pvc_ug_4w_bundled bus1=B317 bus2=B2670 length=0.0106833293219 units=km phases=4
new line.L_1639 lineCode=ugsc_16cu_xlpe/nyl/pvc_ug_4w_bundled bus1=B2272 bus2=B1584 length=0.0111883517966 units=km phases=4
new line.L_1664 lineCode=ugsc_16cu_xlpe/nyl/pvc_ug_4w_bundled bus1=B2719 bus2=B748 length=0.0104906712404 units=km phases=4
new line.L_1712 lineCode=ugsc_16cu_xlpe/nyl/pvc_ug_4w_bundled bus1=B2063 bus2=B2019 length=0.0233856269272 units=km phases=4
new line.L_1713 lineCode=ughv_240cu_xlpe/nyl/pvc_ug_4w_bundled bus1=B1104 bus2=B1246 length=0.0411596045129 units=km phases=4
new line.L_1743 lineCode=ugsc_16cu_xlpe/nyl/pvc_ug_4w_bundled bus1=B2481 bus2=B700 length=0.0427564687149 units=km phases=4
new line.L_1767 lineCode=ugsc_16cu_xlpe/nyl/pvc_ug_4w_bundled bus1=B2041 bus2=B1635 length=0.00560071285306 units=km phases=4
new line.L_1779 lineCode=ugsc_16cu_xlpe/nyl/pvc_ug_4w_bundled bus1=B269 bus2=B2979 length=0.0347242659817 units=km phases=4
new line.L_1781 lineCode=uglv_240al_xlpe/nyl/pvc_ug_4w_bundled bus1=B530 bus2=B2179 length=0.0492782845635 units=km phases=4
new line.L_1803 lineCode=ughv_240cu_xlpe/nyl/pvc_ug_4w_bundled bus1=B2202 bus2=B178 length=0.0385338665391 units=km phases=4
new line.L_1823 lineCode=ugsc_16cu_xlpe/nyl/pvc_ug_4w_bundled bus1=B2429 bus2=B329 length=0.0226827202867 units=km phases=4
new line.L_1858 lineCode=ugsc_16cu_xlpe/nyl/pvc_ug_4w_bundled bus1=B919 bus2=B2178 length=0.0111733050155 units=km phases=4
new line.L_1865 lineCode=ugsc_16cu_xlpe/nyl/pvc_ug_4w_bundled bus1=B2182 bus2=B2750 length=0.0255668708512 units=km phases=4
new line.L_1880 lineCode=ugsc_16cu_xlpe/nyl/pvc_ug_4w_bundled bus1=B2019 bus2=B1878 length=0.00558834729891 units=km phases=4
new line.L_1910 lineCode=ugsc_16cu_xlpe/nyl/pvc_ug_4w_bundled bus1=B2160 bus2=B2539 length=0.0120990685693 units=km phases=4
new line.L_1922 lineCode=ugsc_16cu_xlpe/nyl/pvc_ug_4w_bundled bus1=B720 bus2=B1104 length=0.0563852680278 units=km phases=4
new line.L_1928 lineCode=ughv_400al_triplex_ug_4w_bundled bus1=B1186 bus2=B2570 length=0.000244629175463 units=km phases=4
new line.L_1939 lineCode=ughv_240cu_xlpe/nyl/pvc_ug_4w_bundled bus1=B1761 bus2=B2275 length=0.0402751997622 units=km phases=4
new line.L_1965 lineCode=ughv_240cu_xlpe/nyl/pvc_ug_4w_bundled bus1=B1240 bus2=B1757 length=0.0960686141048 units=km phases=4
new line.L_1968 lineCode=ugsc_16cu_xlpe/nyl/pvc_ug_4w_bundled bus1=B1707 bus2=B618 length=0.0109195850121 units=km phases=4
new line.L_1991 lineCode=ugsc_16cu_xlpe/nyl/pvc_ug_4w_bundled bus1=B2218 bus2=B1779 length=0.0119330069491 units=km phases=4
new line.L_1999 lineCode=ugsc_16cu_xlpe/nyl/pvc_ug_4w_bundled bus1=B34 bus2=B2705 length=0.0188611837316 units=km phases=4
new line.L_2017 lineCode=ugsc_16cu_xlpe/nyl/pvc_ug_4w_bundled bus1=B331 bus2=B2307 length=0.0101374831406 units=km phases=4
new line.L_2030 lineCode=ugsc_16cu_xlpe/nyl/pvc_ug_4w_bundled bus1=B2179 bus2=B2855 length=0.0217018069421 units=km phases=4
new line.L_2035 lineCode=ugsc_16cu_xlpe/nyl/pvc_ug_4w_bundled bus1=B593 bus2=B2481 length=0.00929362209538 units=km phases=4
new line.L_2083 lineCode=ugsc_16cu_xlpe/nyl/pvc_ug_4w_bundled bus1=B3336 bus2=B1506 length=0.0107562037385 units=km phases=4
new line.L_2091 lineCode=ughv_400al_triplex_ug_4w_bundled bus1=B2570 bus2=B2057 length=0.000320870365746 units=km phases=4
new line.L_2094 lineCode=ugsc_16cu_xlpe/nyl/pvc_ug_4w_bundled bus1=B154 bus2=B1578 length=0.0104300628326 units=km phases=4
new line.L_2109 lineCode=ugsc_16cu_xlpe/nyl/pvc_ug_4w_bundled bus1=B1288 bus2=B269 length=0.0482070434319 units=km phases=4
new line.L_2120 lineCode=ugsc_16cu_xlpe/nyl/pvc_ug_4w_bundled bus1=B1347 bus2=B860 length=0.0217598437338 units=km phases=4
new line.L_2145 lineCode=ugsc_16cu_xlpe/nyl/pvc_ug_4w_bundled bus1=B3026 bus2=B748 length=0.0103986287338 units=km phases=4
new line.L_2225 lineCode=ugsc_16cu_xlpe/nyl/pvc_ug_4w_bundled bus1=B424 bus2=B863 length=0.0155722964088 units=km phases=4
new line.L_2248 lineCode=ugsc_16cu_xlpe/nyl/pvc_ug_4w_bundled bus1=B178 bus2=B2863 length=0.00559946752969 units=km phases=4
new line.L_2253 lineCode=ughv_240cu_xlpe/nyl/pvc_ug_4w_bundled bus1=B1347 bus2=B3338 length=0.0398640255143 units=km phases=4
new line.L_2266 lineCode=ugsc_16cu_xlpe/nyl/pvc_ug_4w_bundled bus1=B2835 bus2=B1575 length=0.00699209406668 units=km phases=4
new line.L_2327 lineCode=ugsc_16cu_xlpe/nyl/pvc_ug_4w_bundled bus1=B2253 bus2=B2275 length=0.0101772710877 units=km phases=4
new line.L_2354 lineCode=ugsc_16cu_xlpe/nyl/pvc_ug_4w_bundled bus1=B2320 bus2=B178 length=0.0108833221464 units=km phases=4
new line.L_2374 lineCode=ugsc_16cu_xlpe/nyl/pvc_ug_4w_bundled bus1=B1492 bus2=B3338 length=0.0108561452435 units=km phases=4
new line.L_2385 lineCode=ughv_240cu_xlpe/nyl/pvc_ug_4w_bundled bus1=B748 bus2=B2218 length=0.0463129319614 units=km phases=4
new line.L_2433 lineCode=ugsc_16cu_xlpe/nyl/pvc_ug_4w_bundled bus1=B549 bus2=B2019 length=0.00953653104543 units=km phases=4
new line.L_2463 lineCode=ugsc_16cu_xlpe/nyl/pvc_ug_4w_bundled bus1=B748 bus2=B3288 length=0.00551931791253 units=km phases=4
new line.L_2475 lineCode=ugsc_16cu_xlpe/nyl/pvc_ug_4w_bundled bus1=B2505 bus2=B1958 length=0.00904096636030 units=km phases=4
new line.L_2481 lineCode=ugsc_16cu_xlpe/nyl/pvc_ug_4w_bundled bus1=B23 bus2=B1851 length=0.0154010958243 units=km phases=4
new line.L_2486 lineCode=ugsc_16cu_xlpe/nyl/pvc_ug_4w_bundled bus1=B2523 bus2=B451 length=0.112774832034 units=km phases=4
new line.L_2487 lineCode=ugsc_16cu_xlpe/nyl/pvc_ug_4w_bundled bus1=B513 bus2=B2680 length=0.0104725209295 units=km phases=4
new line.L_2502 lineCode=ugsc_16cu_xlpe/nyl/pvc_ug_4w_bundled bus1=B1719 bus2=B1246 length=0.0106250358862 units=km phases=4
new line.L_2506 lineCode=ugsc_16cu_xlpe/nyl/pvc_ug_4w_bundled bus1=B2662 bus2=B1913 length=0.0104931733166 units=km phases=4
new line.L_2561 lineCode=ugsc_16cu_xlpe/nyl/pvc_ug_4w_bundled bus1=B2951 bus2=B269 length=0.00494722087765 units=km phases=4
new line.L_2563 lineCode=uglv_120cu_xlpe/nyl/pvc_ug_4w_bundled bus1=B957 bus2=B329 length=0.0315205694966 units=km phases=4
new line.L_2602 lineCode=generic/lv bus1=B863 bus2=B2680 length=0.0404975816850 units=km phases=4
new line.L_2604 lineCode=generic/lv bus1=B2795 bus2=B1506 length=0.0406616428776 units=km phases=4
new line.L_2608 lineCode=uglv_240al_xlpe/nyl/pvc_ug_4w_bundled bus1=B2275 bus2=B2307 length=0.0264764016135 units=km phases=4
new line.L_2628 lineCode=ugsc_16cu_xlpe/nyl/pvc_ug_4w_bundled bus1=B413 bus2=B710 length=0.0106479684174 units=km phases=4
new line.L_2645 lineCode=ugsc_16cu_xlpe/nyl/pvc_ug_4w_bundled bus1=B1527 bus2=B1246 length=0.0113546783519 units=km phases=4
new line.L_2647 lineCode=ugsc_16cu_xlpe/nyl/pvc_ug_4w_bundled bus1=B2578 bus2=B1946 length=0.0162274435108 units=km phases=4
new line.L_2660 lineCode=generic/lv bus1=B2795 bus2=B2307 length=0.0370421448903 units=km phases=4
new line.L_2714 lineCode=ugsc_16cu_xlpe/nyl/pvc_ug_4w_bundled bus1=B1494 bus2=B2952 length=0.00922408961833 units=km phases=4
new line.L_2731 lineCode=ughv_400al_triplex_ug_4w_bundled bus1=B451 bus2=B1783 length=0.000255589005395 units=km phases=4
new line.L_2740 lineCode=ugsc_16cu_xlpe/nyl/pvc_ug_4w_bundled bus1=B1987 bus2=B1195 length=0.0115187385736 units=km phases=4
new line.L_2756 lineCode=ugsc_16cu_xlpe/nyl/pvc_ug_4w_bundled bus1=B1506 bus2=B3175 length=0.00618003036415 units=km phases=4
new line.L_2781 lineCode=ughv_400al_triplex_ug_4w_bundled bus1=B2324 bus2=B2540 length=0.000800000000000 units=km phases=4
new line.L_2787 lineCode=ugsc_16cu_xlpe/nyl/pvc_ug_4w_bundled bus1=B2968 bus2=B2835 length=0.0272203244820 units=km phases=4
new line.L_2806 lineCode=ughv_240cu_xlpe/nyl/pvc_ug_4w_bundled bus1=B1930 bus2=B284 length=0.0395300120705 units=km phases=4
new line.L_2813 lineCode=ugsc_16cu_xlpe/nyl/pvc_ug_4w_bundled bus1=B2475 bus2=B1104 length=0.0105766125368 units=km phases=4
new line.L_2822 lineCode=ugsc_16cu_xlpe/nyl/pvc_ug_4w_bundled bus1=B622 bus2=B1913 length=0.0170298888342 units=km phases=4
new line.L_2879 lineCode=ugsc_16cu_xlpe/nyl/pvc_ug_4w_bundled bus1=B890 bus2=B178 length=0.0368949758778 units=km phases=4
new line.L_2890 lineCode=ughv_240cu_xlpe/nyl/pvc_ug_4w_bundled bus1=B1532 bus2=B1761 length=0.0403073461638 units=km phases=4
new line.L_2898 lineCode=ugsc_16cu_xlpe/nyl/pvc_ug_4w_bundled bus1=B1038 bus2=B1946 length=0.00580953630774 units=km phases=4
new line.L_2924 lineCode=ugsc_16cu_xlpe/nyl/pvc_ug_4w_bundled bus1=B1289 bus2=B2019 length=0.00972738062827 units=km phases=4
new line.L_2933 lineCode=ugsc_16cu_xlpe/nyl/pvc_ug_4w_bundled bus1=B970 bus2=B178 length=0.0108946680281 units=km phases=4
new line.L_2955 lineCode=ugsc_16cu_xlpe/nyl/pvc_ug_4w_bundled bus1=B86 bus2=B863 length=0.00564995117272 units=km phases=4
new line.L_2970 lineCode=ugsc_16cu_xlpe/nyl/pvc_ug_4w_bundled bus1=B379 bus2=B1851 length=0.0141312175439 units=km phases=4
new line.L_3047 lineCode=ugsc_16cu_xlpe/nyl/pvc_ug_4w_bundled bus1=B2136 bus2=B2670 length=0.0111697428619 units=km phases=4
new line.L_3058 lineCode=ugsc_16cu_xlpe/nyl/pvc_ug_4w_bundled bus1=B2132 bus2=B2952 length=0.0101439751160 units=km phases=4
new line.L_3103 lineCode=ughv_240cu_xlpe/nyl/pvc_ug_4w_bundled bus1=B178 bus2=B957 length=0.0414008841625 units=km phases=4
new line.L_3106 lineCode=ugsc_16cu_xlpe/nyl/pvc_ug_4w_bundled bus1=B235 bus2=B67 length=0.00336798076030 units=km phases=4
new line.L_3117 lineCode=ugsc_16cu_xlpe/nyl/pvc_ug_4w_bundled bus1=B2079 bus2=B3216 length=0.0181492399111 units=km phases=4
new line.L_3125 lineCode=ugsc_16cu_xlpe/nyl/pvc_ug_4w_bundled bus1=B2393 bus2=B2481 length=0.00971732500035 units=km phases=4
new line.L_3143 lineCode=ugsc_16cu_xlpe/nyl/pvc_ug_4w_bundled bus1=B1082 bus2=B1635 length=0.0211121078623 units=km phases=4
new line.L_3147 lineCode=ugsc_16cu_xlpe/nyl/pvc_ug_4w_bundled bus1=B142 bus2=B2566 length=0.00577761675244 units=km phases=4
new line.L_3179 lineCode=uglv_240al_xlpe/nyl/pvc_ug_4w_bundled bus1=B1242 bus2=B3335 length=0.0733158042820 units=km phases=4
new line.L_3188 lineCode=ugsc_16cu_xlpe/nyl/pvc_ug_4w_bundled bus1=B1546 bus2=B2927 length=0.0141580337498 units=km phases=4
new line.L_3216 lineCode=ugsc_16cu_xlpe/nyl/pvc_ug_4w_bundled bus1=B2851 bus2=B2179 length=0.0103649668069 units=km phases=4
new line.L_3232 lineCode=ugsc_16cu_xlpe/nyl/pvc_ug_4w_bundled bus1=B2064 bus2=B1347 length=0.0104853200266 units=km phases=4
new line.L_3242 lineCode=ughv_400al_triplex_ug_4w_bundled bus1=B451 bus2=B616 length=0.000255748683198 units=km phases=4
new line.L_3339 lineCode=ugsc_16cu_xlpe/nyl/pvc_ug_4w_bundled bus1=B2169 bus2=B329 length=0.0182269977135 units=km phases=4
new line.L_3352 lineCode=ugsc_16cu_xlpe/nyl/pvc_ug_4w_bundled bus1=B869 bus2=B2208 length=0.00913775702684 units=km phases=4
new line.L_3367 lineCode=uglv_240al_xlpe/nyl/pvc_ug_4w_bundled bus1=B638 bus2=B284 length=0.0278989314630 units=km phases=4
new line.L_3393 lineCode=ughv_240cu_xlpe/nyl/pvc_ug_4w_bundled bus1=B2927 bus2=B2019 length=0.0366324029172 units=km phases=4
new line.L_3395 lineCode=ugsc_16cu_xlpe/nyl/pvc_ug_4w_bundled bus1=B1833 bus2=B2927 length=0.00975217181110 units=km phases=4
new line.L_3402 lineCode=ugsc_16cu_xlpe/nyl/pvc_ug_4w_bundled bus1=B1610 bus2=B1578 length=0.0193035155594 units=km phases=4
new line.L_3410 lineCode=ugsc_16cu_xlpe/nyl/pvc_ug_4w_bundled bus1=B2494 bus2=B1532 length=0.0103932782241 units=km phases=4
new line.L_3411 lineCode=ugsc_16cu_xlpe/nyl/pvc_ug_4w_bundled bus1=B2894 bus2=B1546 length=0.00392142951874 units=km phases=4
new line.L_3412 lineCode=ugsc_16cu_xlpe/nyl/pvc_ug_4w_bundled bus1=B2135 bus2=B1247 length=0.0181225813624 units=km phases=4
new line.L_3439 lineCode=ugsc_16cu_xlpe/nyl/pvc_ug_4w_bundled bus1=B769 bus2=B1584 length=0.0185550895151 units=km phases=4
new line.L_3453 lineCode=ughv_240cu_xlpe/nyl/pvc_ug_4w_bundled bus1=B1481 bus2=B748 length=0.0395791413633 units=km phases=4
new line.L_3467 lineCode=ugsc_16cu_xlpe/nyl/pvc_ug_4w_bundled bus1=B2601 bus2=B1240 length=0.0105428866123 units=km phases=4
new line.L_3472 lineCode=uglv_240al_xlpe/nyl/pvc_ug_4w_bundled bus1=B2680 bus2=B530 length=0.0394303576528 units=km phases=4
new line.L_3497 lineCode=ughv_240cu_xlpe/nyl/pvc_ug_4w_bundled bus1=B2019 bus2=B1958 length=0.0361979322395 units=km phases=4
new line.L_3510 lineCode=ugsc_16cu_xlpe/nyl/pvc_ug_4w_bundled bus1=B297 bus2=B2178 length=0.0322091299988 units=km phases=4
new line.L_3515 lineCode=ugsc_16cu_xlpe/nyl/pvc_ug_4w_bundled bus1=B2866 bus2=B2315 length=0.0197221987272 units=km phases=4
new line.L_3521 lineCode=ughv_240cu_xlpe/nyl/pvc_ug_4w_bundled bus1=B2481 bus2=B2705 length=0.0354233591279 units=km phases=4
new line.L_3535 lineCode=ugsc_16cu_xlpe/nyl/pvc_ug_4w_bundled bus1=B664 bus2=B67 length=0.0107550607041 units=km phases=4
new line.L_3566 lineCode=ughv_400al_triplex_ug_4w_bundled bus1=B2029 bus2=B106 length=7.47735679484e-05 units=km phases=4
new line.L_3608 lineCode=ugsc_16cu_xlpe/nyl/pvc_ug_4w_bundled bus1=B2500 bus2=B1930 length=0.0102917118811 units=km phases=4
new line.L_3626 lineCode=ugsc_16cu_xlpe/nyl/pvc_ug_4w_bundled bus1=B544 bus2=B142 length=0.0183365930017 units=km phases=4
new line.L_3652 lineCode=ugsc_16cu_xlpe/nyl/pvc_ug_4w_bundled bus1=B1262 bus2=B1532 length=0.0106385995364 units=km phases=4
new line.L_3653 lineCode=ughv_240cu_xlpe/nyl/pvc_ug_4w_bundled bus1=B2178 bus2=B1125 length=0.0674847808439 units=km phases=4
new line.L_3668 lineCode=ugsc_16cu_xlpe/nyl/pvc_ug_4w_bundled bus1=B859 bus2=B1532 length=0.0221424222824 units=km phases=4
new line.L_3685 lineCode=ugsc_16cu_xlpe/nyl/pvc_ug_4w_bundled bus1=B3386 bus2=B2202 length=0.0200480430832 units=km phases=4
new line.L_3730 lineCode=ugsc_16cu_xlpe/nyl/pvc_ug_4w_bundled bus1=B1294 bus2=B481 length=0.00989914520965 units=km phases=4
new line.L_3740 lineCode=ugsc_16cu_xlpe/nyl/pvc_ug_4w_bundled bus1=B727 bus2=B1347 length=0.0104097167951 units=km phases=4
new line.L_3752 lineCode=ugsc_16cu_xlpe/nyl/pvc_ug_4w_bundled bus1=B2479 bus2=B2063 length=0.0102135670435 units=km phases=4
new line.L_3780 lineCode=ugsc_16cu_xlpe/nyl/pvc_ug_4w_bundled bus1=B1273 bus2=B481 length=0.00991555175821 units=km phases=4
new line.L_3785 lineCode=ugsc_16cu_xlpe/nyl/pvc_ug_4w_bundled bus1=B2748 bus2=B2750 length=0.0185980839797 units=km phases=4
new line.L_3808 lineCode=ugsc_16cu_xlpe/nyl/pvc_ug_4w_bundled bus1=B2211 bus2=B730 length=0.0365661701177 units=km phases=4
new line.L_3844 lineCode=ugsc_16cu_xlpe/nyl/pvc_ug_4w_bundled bus1=B957 bus2=B2842 length=0.0108191695398 units=km phases=4
new line.L_3845 lineCode=ugsc_16cu_xlpe/nyl/pvc_ug_4w_bundled bus1=B2619 bus2=B2705 length=0.00997007894487 units=km phases=4
new line.L_3854 lineCode=ugsc_16cu_xlpe/nyl/pvc_ug_4w_bundled bus1=B1986 bus2=B236 length=0.0103064989849 units=km phases=4
new line.L_3863 lineCode=ugsc_16cu_xlpe/nyl/pvc_ug_4w_bundled bus1=B597 bus2=B2178 length=0.00560124640486 units=km phases=4
new line.L_3895 lineCode=ugsc_16cu_xlpe/nyl/pvc_ug_4w_bundled bus1=B2257 bus2=B1302 length=0.0101267848062 units=km phases=4
new line.L_3903 lineCode=ugsc_16cu_xlpe/nyl/pvc_ug_4w_bundled bus1=B2852 bus2=B2795 length=0.0120936528539 units=km phases=4
new line.L_3928 lineCode=ugsc_16cu_xlpe/nyl/pvc_ug_4w_bundled bus1=B540 bus2=B1946 length=0.0199019241812 units=km phases=4
new line.L_3943 lineCode=ugsc_16cu_xlpe/nyl/pvc_ug_4w_bundled bus1=B2218 bus2=B1195 length=0.0122287241033 units=km phases=4
new line.L_4001 lineCode=ugsc_16cu_xlpe/nyl/pvc_ug_4w_bundled bus1=B3243 bus2=B269 length=0.0171551026613 units=km phases=4
new line.L_4062 lineCode=uglv_240al_xlpe/nyl/pvc_ug_4w_bundled bus1=B269 bus2=B1851 length=0.0415503856533 units=km phases=4
new line.L_4066 lineCode=ugsc_16cu_xlpe/nyl/pvc_ug_4w_bundled bus1=B2999 bus2=B2458 length=0.0102923055045 units=km phases=4
new line.L_4087 lineCode=ughv_400al_triplex_ug_4w_bundled bus1=B2377 bus2=B2384 length=7.47735679484e-05 units=km phases=4
new line.L_4110 lineCode=ughv_240cu_xlpe/nyl/pvc_ug_4w_bundled bus1=B1104 bus2=B730 length=0.142796329034 units=km phases=4
new line.L_4113 lineCode=ugsc_16cu_xlpe/nyl/pvc_ug_4w_bundled bus1=B1067 bus2=B1930 length=0.0101024803518 units=km phases=4
new line.L_4137 lineCode=ugsc_16cu_xlpe/nyl/pvc_ug_4w_bundled bus1=B1869 bus2=B530 length=0.0261737579200 units=km phases=4
new line.L_4139 lineCode=ugsc_16cu_xlpe/nyl/pvc_ug_4w_bundled bus1=B2167 bus2=B2322 length=0.0236036939515 units=km phases=4
new line.L_4146 lineCode=ugsc_16cu_xlpe/nyl/pvc_ug_4w_bundled bus1=B1972 bus2=B284 length=0.0106087227169 units=km phases=4
new line.L_4164 lineCode=ugsc_16cu_xlpe/nyl/pvc_ug_4w_bundled bus1=B497 bus2=B2866 length=0.0153767204376 units=km phases=4
new line.L_4195 lineCode=ugsc_16cu_xlpe/nyl/pvc_ug_4w_bundled bus1=B2412 bus2=B2178 length=0.0112358737465 units=km phases=4
new line.L_4223 lineCode=ugsc_16cu_xlpe/nyl/pvc_ug_4w_bundled bus1=B2446 bus2=B530 length=0.0154946441853 units=km phases=4
new line.L_4244 lineCode=ughv_400al_triplex_ug_4w_bundled bus1=B2213 bus2=B1506 length=0.000800000000000 units=km phases=4
new line.L_4263 lineCode=ugsc_16cu_xlpe/nyl/pvc_ug_4w_bundled bus1=B748 bus2=B236 length=0.0124684747181 units=km phases=4
new line.L_4276 lineCode=ugsc_16cu_xlpe/nyl/pvc_ug_4w_bundled bus1=B2381 bus2=B2458 length=0.0104464899986 units=km phases=4
new line.L_4287 lineCode=uglv_240al_xlpe/nyl/pvc_ug_4w_bundled bus1=B142 bus2=B2578 length=0.0353614270039 units=km phases=4
new line.L_4301 lineCode=ugsc_16cu_xlpe/nyl/pvc_ug_4w_bundled bus1=B1242 bus2=B2615 length=0.00558903350951 units=km phases=4
new line.L_4309 lineCode=ugsc_16cu_xlpe/nyl/pvc_ug_4w_bundled bus1=B2179 bus2=B618 length=0.0172166752996 units=km phases=4
new line.L_4313 lineCode=ughv_400al_triplex_ug_4w_bundled bus1=B2570 bus2=B747 length=0.000328460368080 units=km phases=4
new line.L_4363 lineCode=ugsc_16cu_xlpe/nyl/pvc_ug_4w_bundled bus1=B2085 bus2=B23 length=0.0104168856754 units=km phases=4
new line.L_4387 lineCode=ughv_240cu_xlpe/nyl/pvc_ug_4w_bundled bus1=B3338 bus2=B1240 length=0.0413561536000 units=km phases=4
new line.L_4397 lineCode=ugsc_16cu_xlpe/nyl/pvc_ug_4w_bundled bus1=B1045 bus2=B2315 length=0.00937421033453 units=km phases=4
new line.L_4408 lineCode=ugsc_16cu_xlpe/nyl/pvc_ug_4w_bundled bus1=B67 bus2=B1086 length=0.0170652344575 units=km phases=4
new line.L_4409 lineCode=ugsc_16cu_xlpe/nyl/pvc_ug_4w_bundled bus1=B1743 bus2=B622 length=0.00989000721013 units=km phases=4
new line.L_4416 lineCode=ugsc_16cu_xlpe/nyl/pvc_ug_4w_bundled bus1=B581 bus2=B2097 length=0.0109405750653 units=km phases=4
new line.L_4435 lineCode=ugsc_16cu_xlpe/nyl/pvc_ug_4w_bundled bus1=B2166 bus2=B1584 length=0.0498290538923 units=km phases=4
new line.L_4441 lineCode=ughv_240cu_xlpe/nyl/pvc_ug_4w_bundled bus1=B1958 bus2=B2202 length=0.0351738894589 units=km phases=4
new line.L_4474 lineCode=uglv_240al_xlpe/nyl/pvc_ug_4w_bundled bus1=B2578 bus2=B1192 length=0.0357643318501 units=km phases=4
new line.L_4483 lineCode=ugsc_16cu_xlpe/nyl/pvc_ug_4w_bundled bus1=B1860 bus2=B2063 length=0.0170346110941 units=km phases=4
new line.L_4485 lineCode=ugsc_16cu_xlpe/nyl/pvc_ug_4w_bundled bus1=B2304 bus2=B2979 length=0.0131131602670 units=km phases=4
new line.L_4500 lineCode=ugsc_16cu_xlpe/nyl/pvc_ug_4w_bundled bus1=B2835 bus2=B2680 length=0.0170084535513 units=km phases=4
new line.L_4515 lineCode=ughv_240cu_xlpe/nyl/pvc_ug_4w_bundled bus1=B730 bus2=B2670 length=0.0402229949329 units=km phases=4
new line.L_4521 lineCode=ugsc_16cu_xlpe/nyl/pvc_ug_4w_bundled bus1=B1034 bus2=B3216 length=0.00519755750752 units=km phases=4
new line.L_4550 lineCode=uglv_240al_xlpe/nyl/pvc_ug_4w_bundled bus1=B3216 bus2=B2322 length=0.0396090096177 units=km phases=4
new line.L_4561 lineCode=ugsc_16cu_xlpe/nyl/pvc_ug_4w_bundled bus1=B1515 bus2=B2322 length=0.00574192635114 units=km phases=4
new line.L_4599 lineCode=ugsc_16cu_xlpe/nyl/pvc_ug_4w_bundled bus1=B228 bus2=B1481 length=0.0282100727427 units=km phases=4
new line.L_4612 lineCode=ugsc_16cu_xlpe/nyl/pvc_ug_4w_bundled bus1=B1958 bus2=B2543 length=0.0193784025456 units=km phases=4
new line.L_4628 lineCode=ugsc_16cu_xlpe/nyl/pvc_ug_4w_bundled bus1=B1240 bus2=B2694 length=0.0439932421332 units=km phases=4
new line.L_4697 lineCode=ugsc_16cu_xlpe/nyl/pvc_ug_4w_bundled bus1=B74 bus2=B142 length=0.00935796689249 units=km phases=4
new line.L_4700 lineCode=ughv_240cu_xlpe/nyl/pvc_ug_4w_bundled bus1=B2218 bus2=B1199 length=0.0873564323735 units=km phases=4
